DEFINED_PHASES=compile configure install prepare test
DEPEND=dev-python/setuptools[python_targets_python2_7(-)?,python_targets_python3_3(-)?,python_targets_python3_4(-)?,-python_single_target_python2_7(-),-python_single_target_python3_3(-),-python_single_target_python3_4(-)] test? ( dev-python/oct2py[python_targets_python2_7(-)?,python_targets_python3_3(-)?,python_targets_python3_4(-)?,-python_single_target_python2_7(-),-python_single_target_python3_3(-),-python_single_target_python3_4(-)] dev-python/pytest[python_targets_python2_7(-)?,python_targets_python3_3(-)?,python_targets_python3_4(-)?,-python_single_target_python2_7(-),-python_single_target_python3_3(-),-python_single_target_python3_4(-)] sci-libs/scipy[python_targets_python2_7(-)?,python_targets_python3_3(-)?,python_targets_python3_4(-)?,-python_single_target_python2_7(-),-python_single_target_python3_3(-),-python_single_target_python3_4(-)] ) python_targets_python2_7? ( >=dev-lang/python-2.7.5-r2:2.7 ) python_targets_python3_3? ( >=dev-lang/python-3.3.2-r2:3.3 ) python_targets_python3_4? ( dev-lang/python:3.4 ) >=dev-lang/python-exec-2:=[python_targets_python2_7(-)?,python_targets_python3_3(-)?,python_targets_python3_4(-)?,-python_single_target_python2_7(-),-python_single_target_python3_3(-),-python_single_target_python3_4(-)]
DESCRIPTION=Python version of the SEAWATER 3.2 MATLAB toolkit for calculating the properties of sea water
EAPI=5
HOMEPAGE=http://pypi.python.org/pypi/seawater/
IUSE=test python_targets_python2_7 python_targets_python3_3 python_targets_python3_4
KEYWORDS=~amd64 ~x86
LICENSE=MIT
RDEPEND=dev-python/numpy[python_targets_python2_7(-)?,python_targets_python3_3(-)?,python_targets_python3_4(-)?,-python_single_target_python2_7(-),-python_single_target_python3_3(-),-python_single_target_python3_4(-)] python_targets_python2_7? ( >=dev-lang/python-2.7.5-r2:2.7 ) python_targets_python3_3? ( >=dev-lang/python-3.3.2-r2:3.3 ) python_targets_python3_4? ( dev-lang/python:3.4 ) >=dev-lang/python-exec-2:=[python_targets_python2_7(-)?,python_targets_python3_3(-)?,python_targets_python3_4(-)?,-python_single_target_python2_7(-),-python_single_target_python3_3(-),-python_single_target_python3_4(-)]
REQUIRED_USE=|| ( python_targets_python2_7 python_targets_python3_3 python_targets_python3_4 )
RESTRICT=test
SLOT=0
SRC_URI=mirror://pypi/s/seawater/seawater-3.3.2.tar.gz
_eclasses_=distutils-r1	c01d5c4af34f4a37a51fc9638299c222	eutils	998e5931fb95b10a6a11ec796ada2759	multibuild	6d4858dc00f8bc51caf3f957f8430eb0	multilib	3bf24e6abb9b76d9f6c20600f0b716bf	multiprocessing	d7f2985a2c76c365ee20269db5261414	python-r1	331701099758706863819fe3ff6ddc8a	python-utils-r1	e3288bc2e6e487674ce218b632701c9e	toolchain-funcs	3a1969a45ff85b026c4e0fa3aa2ab443
_md5_=5bc1b4b8624e9caaae602670b8522092
