DEFINED_PHASES=compile configure install prepare test
DEPEND=dev-python/setuptools[python_targets_python2_7(-)?,python_targets_python3_3(-)?,-python_single_target_python2_7(-),-python_single_target_python3_3(-)] test? ( dev-python/oct2py[python_targets_python2_7(-)?,python_targets_python3_3(-)?,-python_single_target_python2_7(-),-python_single_target_python3_3(-)] dev-python/pytest[python_targets_python2_7(-)?,python_targets_python3_3(-)?,-python_single_target_python2_7(-),-python_single_target_python3_3(-)] sci-libs/scipy[python_targets_python2_7(-)?,python_targets_python3_3(-)?,-python_single_target_python2_7(-),-python_single_target_python3_3(-)] ) python_targets_python2_7? ( >=dev-lang/python-2.7.5-r2:2.7 ) python_targets_python3_3? ( >=dev-lang/python-3.3.2-r2:3.3 ) dev-lang/python-exec:=[python_targets_python2_7(-)?,python_targets_python3_3(-)?,-python_single_target_python2_7(-),-python_single_target_python3_3(-)]
DESCRIPTION=Python version of the SEAWATER 3.2 MATLAB toolkit for calculating the properties of sea water
EAPI=5
HOMEPAGE=http://pypi.python.org/pypi/seawater/
IUSE=test python_targets_python2_7 python_targets_python3_3
KEYWORDS=~amd64 ~x86
LICENSE=MIT
RDEPEND=dev-python/numpy[python_targets_python2_7(-)?,python_targets_python3_3(-)?,-python_single_target_python2_7(-),-python_single_target_python3_3(-)] python_targets_python2_7? ( >=dev-lang/python-2.7.5-r2:2.7 ) python_targets_python3_3? ( >=dev-lang/python-3.3.2-r2:3.3 ) dev-lang/python-exec:=[python_targets_python2_7(-)?,python_targets_python3_3(-)?,-python_single_target_python2_7(-),-python_single_target_python3_3(-)]
REQUIRED_USE=|| ( python_targets_python2_7 python_targets_python3_3 )
RESTRICT=test
SLOT=0
SRC_URI=mirror://pypi/s/seawater/seawater-3.3.2.tar.gz
_eclasses_=distutils-r1	2efee63b5a249714ce5d8cef3068dd16	eutils	025442f2eecab39ad0b4e541b6e142af	multibuild	46527a4656956da3d58acff72c9b59b1	multilib	fac675dcccf94392371a6abee62d909f	multiprocessing	c2d96fb38f2596209e98fceda58ba1ed	python-r1	36d89a1c51cb1e624d5cdbea26adb9ad	python-utils-r1	555f707a94c14486f51cba70cc55b62c	toolchain-funcs	48b38a216afb92db6314d6c3187abea3
_md5_=74b1dc989be466bdd8058a312f08e877
