DEFINED_PHASES=compile configure install prepare test
DEPEND=dev-python/setuptools[python_targets_python2_6(-)?,python_targets_python2_7(-)?,-python_single_target_python2_6(-),-python_single_target_python2_7(-)] python_targets_python2_6? ( >=dev-lang/python-2.6.8-r3:2.6 ) python_targets_python2_7? ( >=dev-lang/python-2.7.5-r2:2.7 ) dev-lang/python-exec:=[python_targets_python2_6(-)?,python_targets_python2_7(-)?,-python_single_target_python2_6(-),-python_single_target_python2_7(-)]
DESCRIPTION=Python version of the SEAWATER 3.2 MATLAB toolkit for calculating the properties of sea water
EAPI=5
HOMEPAGE=http://pypi.python.org/pypi/seawater/
IUSE=python_targets_python2_6 python_targets_python2_7
KEYWORDS=amd64 x86
LICENSE=MIT
RDEPEND=dev-python/numpy[python_targets_python2_6(-)?,python_targets_python2_7(-)?,-python_single_target_python2_6(-),-python_single_target_python2_7(-)] python_targets_python2_6? ( >=dev-lang/python-2.6.8-r3:2.6 ) python_targets_python2_7? ( >=dev-lang/python-2.7.5-r2:2.7 ) dev-lang/python-exec:=[python_targets_python2_6(-)?,python_targets_python2_7(-)?,-python_single_target_python2_6(-),-python_single_target_python2_7(-)]
REQUIRED_USE=|| ( python_targets_python2_6 python_targets_python2_7 )
SLOT=0
SRC_URI=mirror://pypi/s/seawater/seawater-2.0.1.tar.gz
_eclasses_=distutils-r1	0ecbf835e0c22dec45553cdd29472c01	eutils	025442f2eecab39ad0b4e541b6e142af	multibuild	46527a4656956da3d58acff72c9b59b1	multilib	fac675dcccf94392371a6abee62d909f	multiprocessing	c2d96fb38f2596209e98fceda58ba1ed	python-r1	36d89a1c51cb1e624d5cdbea26adb9ad	python-utils-r1	6164ef644981c5dffdf4cf891caed613	toolchain-funcs	48b38a216afb92db6314d6c3187abea3
_md5_=c38abc221e517137351177b6d7e1d64d
