DEFINED_PHASES=compile configure install prepare test
DEPEND=dev-python/setuptools[python_targets_python2_6(-)?,python_targets_python2_7(-)?,-python_single_target_python2_6(-),-python_single_target_python2_7(-)] userland_GNU? ( >=sys-apps/coreutils-8.5 ) python_targets_python2_6? ( >=dev-lang/python-2.6.8-r3:2.6 ) python_targets_python2_7? ( >=dev-lang/python-2.7.5-r2:2.7 ) dev-lang/python-exec:=[python_targets_python2_6(-)?,python_targets_python2_7(-)?,-python_single_target_python2_6(-),-python_single_target_python2_7(-)]
DESCRIPTION=Python version of the SEAWATER 3.2 MATLAB toolkit for calculating the properties of sea water
EAPI=5
HOMEPAGE=http://pypi.python.org/pypi/seawater/
IUSE=python_targets_python2_6 python_targets_python2_7
KEYWORDS=~amd64 ~x86
LICENSE=MIT
RDEPEND=dev-python/numpy[python_targets_python2_6(-)?,python_targets_python2_7(-)?,-python_single_target_python2_6(-),-python_single_target_python2_7(-)] python_targets_python2_6? ( >=dev-lang/python-2.6.8-r3:2.6 ) python_targets_python2_7? ( >=dev-lang/python-2.7.5-r2:2.7 ) dev-lang/python-exec:=[python_targets_python2_6(-)?,python_targets_python2_7(-)?,-python_single_target_python2_6(-),-python_single_target_python2_7(-)]
REQUIRED_USE=|| ( python_targets_python2_6 python_targets_python2_7 )
SLOT=0
SRC_URI=mirror://pypi/s/seawater/seawater-3.3.tar.gz
_eclasses_=distutils-r1	59b53892e6e67d8f2c5592e8a5ff3aac	eutils	a82a329b538368791f5a6113c60e557e	multibuild	56d4120419072116417e8de1bd1040ff	multilib	892e597faee02a5b94eb02ab512e7622	multiprocessing	564523dd5817a373c272f3ce4326a317	python-r1	cd956d5a4bac2209a64d0f4851cc115d	python-utils-r1	49ee0ca5e1019d8f256a23692dad2642	toolchain-funcs	51e6c948e72c43bcc8edc7544411c953	user	d0a4d0735a6c0183d707ca919bd72f28
_md5_=bd5d2d8e85e648d964e12b22504eb66b
