DEFINED_PHASES=compile configure install prepare test
DEPEND=dev-python/setuptools[python_targets_python2_5(-)?,python_targets_python2_6(-)?,python_targets_python2_7(-)?,-python_single_target_python2_5(-),-python_single_target_python2_6(-),-python_single_target_python2_7(-)] python_targets_python2_5? ( dev-lang/python:2.5 ) python_targets_python2_6? ( dev-lang/python:2.6 ) python_targets_python2_7? ( dev-lang/python:2.7 ) dev-python/python-exec[python_targets_python2_5(-)?,python_targets_python2_6(-)?,python_targets_python2_7(-)?,-python_single_target_python2_5(-),-python_single_target_python2_6(-),-python_single_target_python2_7(-)]
DESCRIPTION=Python version of the SEAWATER 3.2 MATLAB toolkit for calculating the properties of sea water
EAPI=5
HOMEPAGE=http://pypi.python.org/pypi/seawater/
IUSE=python_targets_python2_5 python_targets_python2_6 python_targets_python2_7
KEYWORDS=~amd64 ~x86
LICENSE=MIT
RDEPEND=dev-python/numpy[python_targets_python2_5(-)?,python_targets_python2_6(-)?,python_targets_python2_7(-)?,-python_single_target_python2_5(-),-python_single_target_python2_6(-),-python_single_target_python2_7(-)] python_targets_python2_5? ( dev-lang/python:2.5 ) python_targets_python2_6? ( dev-lang/python:2.6 ) python_targets_python2_7? ( dev-lang/python:2.7 ) dev-python/python-exec[python_targets_python2_5(-)?,python_targets_python2_6(-)?,python_targets_python2_7(-)?,-python_single_target_python2_5(-),-python_single_target_python2_6(-),-python_single_target_python2_7(-)]
REQUIRED_USE=|| ( python_targets_python2_5 python_targets_python2_6 python_targets_python2_7 )
SLOT=0
SRC_URI=mirror://pypi/s/seawater/seawater-2.0.1.tar.gz
_eclasses_=distutils-r1	6950481ecc2ad548f2d9d116a0936fb8	eutils	0c8c56033961c5899d1e699e979550f7	multibuild	32fd04fe3ee97494341710886fd70dfe	multilib	892e597faee02a5b94eb02ab512e7622	multiprocessing	a2130e6fc4aa4c6a24b265ca0cbcc2b6	python-r1	094dc7421f9aea7525b85b899f67e62a	python-utils-r1	9fc80a4f06f33ede447b5647fddca301	toolchain-funcs	7ffd28a8c7eea27218865352bfd3ab2f	user	d0a4d0735a6c0183d707ca919bd72f28
_md5_=c221df26f4a91094e52c9fcf3054fb51
