DEFINED_PHASES=compile configure install prepare test
DEPEND=dev-python/setuptools[python_targets_python2_5(-)?,python_targets_python2_6(-)?,python_targets_python2_7(-)?,-python_single_target_python2_5(-),-python_single_target_python2_6(-),-python_single_target_python2_7(-)] python_targets_python2_5? ( dev-lang/python:2.5 ) python_targets_python2_6? ( dev-lang/python:2.6 ) python_targets_python2_7? ( dev-lang/python:2.7 ) dev-python/python-exec[python_targets_python2_5(-)?,python_targets_python2_6(-)?,python_targets_python2_7(-)?,-python_single_target_python2_5(-),-python_single_target_python2_6(-),-python_single_target_python2_7(-)]
DESCRIPTION=Python version of the SEAWATER 3.2 MATLAB toolkit for calculating the properties of sea water
EAPI=5
HOMEPAGE=http://pypi.python.org/pypi/seawater/
IUSE=python_targets_python2_5 python_targets_python2_6 python_targets_python2_7
KEYWORDS=~amd64 ~x86
LICENSE=MIT
RDEPEND=dev-python/numpy[python_targets_python2_5(-)?,python_targets_python2_6(-)?,python_targets_python2_7(-)?,-python_single_target_python2_5(-),-python_single_target_python2_6(-),-python_single_target_python2_7(-)] python_targets_python2_5? ( dev-lang/python:2.5 ) python_targets_python2_6? ( dev-lang/python:2.6 ) python_targets_python2_7? ( dev-lang/python:2.7 ) dev-python/python-exec[python_targets_python2_5(-)?,python_targets_python2_6(-)?,python_targets_python2_7(-)?,-python_single_target_python2_5(-),-python_single_target_python2_6(-),-python_single_target_python2_7(-)]
SLOT=0
SRC_URI=mirror://pypi/s/seawater/seawater-2.0.1.tar.gz
_eclasses_=distutils-r1	f9bd626cc1e0244c547b15d1d842e2f1	eutils	2824df7f5dc9f47aee293af8a6b517ed	multilib	ded93e450747134a079e647d888aa80b	multiprocessing	a2130e6fc4aa4c6a24b265ca0cbcc2b6	python-r1	8a2f7fb683287f1c6a95198ff0fb21e5	python-utils-r1	120bfd06803274b3d1b986d506302851	toolchain-funcs	69a2016af67775a812f4c03ba4b0e03e	user	d0a4d0735a6c0183d707ca919bd72f28
_md5_=c221df26f4a91094e52c9fcf3054fb51
